*Heading
*Node
1,0.0000000000000,-0.5000000000000
2,0.2500000000000,-0.5000000000000
3,0.5000000000000,-0.5000000000000
4,0.7500000000000,-0.5000000000000
5,1.0000000000000,-0.5000000000000
6,1.2500000000000,-0.5000000000000
7,1.5000000000000,-0.5000000000000
8,1.7500000000000,-0.5000000000000
9,2.0000000000000,-0.5000000000000
10,2.2500000000000,-0.5000000000000
11,2.5000000000000,-0.5000000000000
12,2.7500000000000,-0.5000000000000
13,3.0000000000000,-0.5000000000000
14,3.2500000000000,-0.5000000000000
15,3.5000000000000,-0.5000000000000
16,3.7500000000000,-0.5000000000000
17,4.0000000000000,-0.5000000000000
18,4.2500000000000,-0.5000000000000
19,4.5000000000000,-0.5000000000000
20,4.7500000000000,-0.5000000000000
** ... 2081 like lines cut
*User element,type=U1,nodes=4,properties=8,coordinates=2,variables=44
1,2
*Element, type=U1
1,19,20,53,52
2,20,21,54,53
3,21,22,55,54
4,22,23,56,55
5,23,24,57,56
6,24,25,58,57
7,25,26,59,58
8,26,27,60,59
9,27,28,61,60
10,28,29,62,61
11,29,30,63,62
12,30,31,64,63
13,31,32,65,64
14,32,33,66,65
15,52,53,86,85
16,53,54,87,86
17,54,55,88,87
18,55,56,89,88
19,56,57,90,89
20,57,58,91,90
** ... 1852 like lines cut
*User element,type=U2,nodes=8,properties=8,coordinates=2,variables=44
1,2
*Element, type=U2
1873,15,16,49,48,2077,2078,2083,2082
1874,16,17,50,49,2078,2079,2084,2083
1875,17,18,51,50,2079,2080,2085,2084
1876,18,19,52,51,2080,2081,2086,2085
1877,48,49,82,81,2082,2083,2088,2087
1878,49,50,83,82,2083,2084,2089,2088
1879,50,51,84,83,2084,2085,2090,2089
1880,51,52,85,84,2085,2086,2091,2090
1881,81,82,115,114,2087,2088,2093,2092
1882,82,83,116,115,2088,2089,2094,2093
1883,83,84,117,116,2089,2090,2095,2094
1884,84,85,118,117,2090,2091,2096,2095
1885,114,115,148,147,2092,2093,2098,2097
1886,115,116,149,148,2093,2094,2099,2098
1887,116,117,150,149,2094,2095,2100,2099
1888,117,118,151,150,2095,2096,2101,2100
*User element,type=U3,nodes=8,properties=8,coordinates=2,variables=44
1,2
*Element, type=U3
1889,236,237,328,327,2077,2078,2083,2082
1890,237,238,329,328,2077,2078,2083,2082
1891,238,239,330,329,2077,2078,2083,2082
1892,239,240,331,330,2077,2078,2083,2082
1893,240,241,332,331,2077,2078,2083,2082
1894,241,242,333,332,2078,2079,2084,2083
1895,242,243,334,333,2078,2079,2084,2083
1896,243,244,335,334,2078,2079,2084,2083
1897,244,245,336,335,2078,2079,2084,2083
1898,245,246,337,336,2078,2079,2084,2083
1899,246,247,338,337,2079,2080,2085,2084
1900,247,248,339,338,2079,2080,2085,2084
1901,248,249,340,339,2079,2080,2085,2084
1902,249,250,341,340,2079,2080,2085,2084
1903,250,251,342,341,2079,2080,2085,2084
1904,251,252,343,342,2080,2081,2086,2085
1905,252,253,344,343,2080,2081,2086,2085
1906,253,254,345,344,2080,2081,2086,2085
1907,254,255,346,345,2080,2081,2086,2085
1908,255,256,347,346,2080,2081,2086,2085
** ... 380 like lines cut
*Element, type=CPE4
2289,19,20,53,52
2290,20,21,54,53
2291,21,22,55,54
2292,22,23,56,55
2293,23,24,57,56
2294,24,25,58,57
2295,25,26,59,58
2296,26,27,60,59
2297,27,28,61,60
2298,28,29,62,61
2299,29,30,63,62
2300,30,31,64,63
2301,31,32,65,64
2302,32,33,66,65
2303,52,53,86,85
2304,53,54,87,86
2305,54,55,88,87
2306,55,56,89,88
2307,56,57,90,89
2308,57,58,91,90
** ... 1868 like lines cut
*Elset, elset=ALLE, generate
1,2288,1
*Nset, nset=bottom
1,34,67,100,133,166,257,348,439,530,621,712,803,894,985,1076
1167,1258,1349,1440,1531,1622,1713,1804,1895,1986
*Elset, elset=_load-11_S2
2302,2316,2330,2344
*Surface, type=ELEMENT, name=load-11
_load-11_S2, S2
*Uel property, elset=ALLE
200000,0.3,30,0,30,0.001,30,0.1
*initial conditions,type=solution
ALLE, 0.0, 0.0, 0.0, 0.0, 0.0, 0.0, 0.0
0.0, 0.0, 0.0, 0.0, 0.0, 0.0, 0.0, 0.0
0.0, 0.0, 0.0, 0.0, 0.0, 0.0, 0.0, 0.0
0.0, 0.0, 0.0, 0.0, 0.0, 0.0, 0.0, 0.0
0.0, 0.0, 0.0, 0.0, 0.0, 0.0, 0.0,0.0
0.0, 0.0, 0.0, 0.0, 0.0
**initial conditions,type=stress,geostatic
**ALLE,0,-0.45,-1,-0,5,0.5,0.5
*Elset, elset=dummy1
2289,2290,2291,2292,2293,2294,2295,2296,2297,2298,2299,2300,2301,2302,2303,2304
2305,2306,2307,2308,2309,2310,2311,2312,2313,2314,2315,2316,2317,2318,2319,2320
2321,2322,2323,2324,2325,2326,2327,2328,2329,2330,2331,2332,2333,2334,2335,2336
2337,2338,2339,2340,2341,2342,2343,2344
*Elset, elset=dummy2
2345,2346,2347,2348,2349,2350,2351,2352,2353,2354,2355,2356,2357,2358,2359,2360
*Elset, elset=dummy3
2361,2362,2363,2364,2365,2366,2367,2368,2369,2370,2371,2372,2373,2374,2375,2376
2377,2378,2379,2380,2381,2382,2383,2384,2385,2386,2387,2388,2389,2390,2391,2392
2393,2394,2395,2396,2397,2398,2399,2400,2401,2402,2403,2404,2405,2406,2407,2408
2409,2410,2411,2412,2413,2414,2415,2416,2417,2418,2419,2420,2421,2422,2423,2424
2425,2426,2427,2428,2429,2430,2431,2432,2433,2434,2435,2436,2437,2438,2439,2440
2441,2442,2443,2444,2445,2446,2447,2448,2449,2450,2451,2452,2453,2454,2455,2456
2457,2458,2459,2460,2461,2462,2463,2464,2465,2466,2467,2468,2469,2470,2471,2472
2473,2474,2475,2476,2477,2478,2479,2480,2481,2482,2483,2484,2485,2486,2487,2488
2489,2490,2491,2492,2493,2494,2495,2496,2497,2498,2499,2500,2501,2502,2503,2504
2505,2506,2507,2508,2509,2510,2511,2512,2513,2514,2515,2516,2517,2518,2519,2520
2521,2522,2523,2524,2525,2526,2527,2528,2529,2530,2531,2532,2533,2534,2535,2536
2537,2538,2539,2540,2541,2542,2543,2544,2545,2546,2547,2548,2549,2550,2551,2552
2553,2554,2555,2556,2557,2558,2559,2560,2561,2562,2563,2564,2565,2566,2567,2568
2569,2570,2571,2572,2573,2574,2575,2576,2577,2578,2579,2580,2581,2582,2583,2584
2585,2586,2587,2588,2589,2590,2591,2592,2593,2594,2595,2596,2597,2598,2599,2600
2601,2602,2603,2604,2605,2606,2607,2608,2609,2610,2611,2612,2613,2614,2615,2616
2617,2618,2619,2620,2621,2622,2623,2624,2625,2626,2627,2628,2629,2630,2631,2632
2633,2634,2635,2636,2637,2638,2639,2640,2641,2642,2643,2644,2645,2646,2647,2648
2649,2650,2651,2652,2653,2654,2655,2656,2657,2658,2659,2660,2661,2662,2663,2664
2665,2666,2667,2668,2669,2670,2671,2672,2673,2674,2675,2676,2677,2678,2679,2680
** ... 68 like lines cut
*Elset, elset=dummy4
3761,3762,3763,3764,3765,3766,3767,3768,3769,3770,3771,3772,3773,3774,3775,3776
3777,3778,3779,3780,3781,3782,3783,3784,3785,3786,3787,3788,3789,3790,3791,3792
3793,3794,3795,3796,3797,3798,3799,3800,3801,3802,3803,3804,3805,3806,3807,3808
3809,3810,3811,3812,3813,3814,3815,3816,3817,3818,3819,3820,3821,3822,3823,3824
3825,3826,3827,3828,3829,3830,3831,3832,3833,3834,3835,3836,3837,3838,3839,3840
3841,3842,3843,3844,3845,3846,3847,3848,3849,3850,3851,3852,3853,3854,3855,3856
3857,3858,3859,3860,3861,3862,3863,3864,3865,3866,3867,3868,3869,3870,3871,3872
3873,3874,3875,3876,3877,3878,3879,3880,3881,3882,3883,3884,3885,3886,3887,3888
3889,3890,3891,3892,3893,3894,3895,3896,3897,3898,3899,3900,3901,3902,3903,3904
3905,3906,3907,3908,3909,3910,3911,3912,3913,3914,3915,3916,3917,3918,3919,3920
3921,3922,3923,3924,3925,3926,3927,3928,3929,3930,3931,3932,3933,3934,3935,3936
3937,3938,3939,3940,3941,3942,3943,3944,3945,3946,3947,3948,3949,3950,3951,3952
3953,3954,3955,3956,3957,3958,3959,3960,3961,3962,3963,3964,3965,3966,3967,3968
3969,3970,3971,3972,3973,3974,3975,3976,3977,3978,3979,3980,3981,3982,3983,3984
3985,3986,3987,3988,3989,3990,3991,3992,3993,3994,3995,3996,3997,3998,3999,4000
4001,4002,4003,4004,4005,4006,4007,4008,4009,4010,4011,4012,4013,4014,4015,4016
4017,4018,4019,4020,4021,4022,4023,4024,4025,4026,4027,4028,4029,4030,4031,4032
4033,4034,4035,4036,4037,4038,4039,4040,4041,4042,4043,4044,4045,4046,4047,4048
4049,4050,4051,4052,4053,4054,4055,4056,4057,4058,4059,4060,4061,4062,4063,4064
4065,4066,4067,4068,4069,4070,4071,4072,4073,4074,4075,4076,4077,4078,4079,4080
** ... 5 like lines cut
*Elset, elset=dummy5
4161,4162,4163,4164,4165,4166,4167,4168,4169,4170,4171,4172,4173,4174,4175,4176
*Solid Section, elset=dummy1, material=mat1
1.0
*Solid Section, elset=dummy2, material=mat1
1.0
*Solid Section, elset=dummy3, material=mat1
1.0
*Solid Section, elset=dummy4, material=mat1
1.0
*Solid Section, elset=dummy5, material=mat1
1.0
*Material, name=mat1
*Elastic
1e-16, 0.3
*user output variables
12,  
*Boundary
bottom, 1, 1
bottom, 2, 2
** ----------------------------------------------------------------
** STEP: Step-1
** 
*Step, name=Step-1, nlgeom=NO
*Static
1., 1., 1e-05, 1.
** Name: Load-1   Type: Surface traction
*Dsload
load-11, TRSHRNU, 1., 0., -1., 0.
** OUTPUT REQUESTS
** 
*Restart, write, frequency=0
*NODE PRINT,FREQ=1
U,CF
*Output, field
*element output, elset=dummy1
 uvarm,
*element output, elset=dummy2
 uvarm,
*element output, elset=dummy3
 uvarm,
*element output, elset=dummy4
 uvarm,
*Node Output
CF, RF, U
*Element Output, elset=dummy1
S,E
*Element Output, elset=dummy2
S,E
*Element Output, elset=dummy3
S,E
*Element Output, elset=dummy4
S,E
*Output, history, variable=PRESELECT
*End Step
